[General]
#always take another config than General, to collect interesting results
#If take this choice you got just a pop up message about there is no network selected 

#debug-on-errors = true
#record-eventlog = true
#eventlog-message-detail-pattern = Packet:declaredOn(Packet) or bitLength
#eventlog-message-detail-pattern = *
sim-time-limit = 120s #2minutes of simulation
#**.appType = "App"
**.app.packetLength = 1024 bytes
**.coefPh=0.7
#network = Mesh
#destination Address 0 in array 'destAddresses' may produce undesirable mistakes
[Config Mesh-AntHoc]
network = networks.Anthoc
**.height=default
**.width = default
**.destAddresses = "2 27 56" 
**.srcAddresses = "33"
**.appType = "AntNetApp"
**.sort =2
**.metrics=1  # 1: time 2: hops 3: both
**.flooding= true
**.setupTime = 2s
**.sendIaTime= 0.25s # time between packets, default : exponetial (1s)
[Config Cpant]
network = networks.Cpant
**.destAddresses = "1 5 9 12 4"
**.appType= "App"
**.sort=3
#
#[Config Net60Bursty]
#network = networks.Net60
#**.appType = "BurstyApp"  # override "App" in [General]
#**.app.packetLength = uniform(20 byte, 1024 byte)
#**.destAddresses = "1 50"
#
#[Config Net60a]
#network = networks.Net60a
#**.destAddresses = "1 28 50"
#
#[Config Net5]
#network = networks.Net5
#**.destAddresses = "1 3"
#**.sendIaTime = exponential(10ms)  # high traffic
#
#[Config Net10]
#network = networks.Net10
#**.app.packetLength = uniform(128 byte, 1024 byte)
#**.destAddresses = "1 6 8"
#
#[Config RandomGraph]
#network = networks.RandomGraph
#**.destAddresses = "0 2"

[Config Mesh-Static] # override issues in [General]
network = networks.Mesh
**.sort=1
**.destAddresses = "7 18 52 0"
**.appType = "BurstyApp"  # override "App" in [General]
#[Config RandomMesh]
#network = networks.RandomMesh
#**.destAddresses = "0 18 52"

#[Config NetBuilder]
#network = networks.Dynamic
#**.address = int(replace(fullName(), "rte", ""))
#**.destAddresses = "1 50"
